         150
  Built with Packmol                                             
  C           29.146015       25.105124       48.264057
  H           28.953487       24.577797       47.353146
  H           29.464169       24.413640       49.016072
  Cl          30.409193       26.300586       47.994147
  Cl          27.676198       25.914439       48.795329
  C           27.076050       19.373375       26.616523
  H           27.941368       18.748557       26.540835
  H           26.355067       19.074327       25.884640
  Cl          26.378684       19.217413       28.224925
  Cl          27.536006       21.048967       26.336465
  C           14.511881       18.327873       36.399626
  H           14.846053       17.315037       36.485613
  H           14.455207       18.598209       35.365892
  Cl          12.920731       18.485122       37.135232
  Cl          15.646584       19.391930       37.222930
  C            1.342710       16.712997       20.292359
  H            1.014301       17.245661       21.160296
  H            2.410512       16.644734       20.298585
  Cl           0.651319       15.094508       20.300792
  Cl           0.817904       17.567610       18.846048
  C           39.697513       39.640964       33.300954
  H           40.529373       40.309169       33.381025
  H           38.981540       39.869910       34.062444
  Cl          38.949203       39.822758       31.718366
  Cl          40.255204       37.983483       33.499291
  C           24.067747       29.326380       17.578813
  H           23.940246       30.364627       17.353672
  H           24.958502       28.966102       17.108011
  Cl          24.198759       29.115701       19.321239
  Cl          22.681288       28.421898       16.981115
  C           14.983805       18.174280       10.790660
  H           14.027800       17.796110       11.087209
  H           14.859404       18.863699        9.981879
  Cl          15.737354       18.996772       12.152009
  Cl          16.007372       16.839830       10.271862
  C            6.633788       46.696837       19.472246
  H            6.732796       46.958679       18.439513
  H            7.187703       45.802579       19.668155
  Cl           7.258008       48.004344       20.471434
  Cl           4.935602       46.429569       19.849516
  C           39.840799       31.200888       20.217248
  H           39.493566       30.208846       20.417704
  H           40.226615       31.632383       21.117169
  Cl          41.112750       31.142928       19.002183
  Cl          38.505386       32.180869       19.622344
  C           42.212971       27.120268       40.756054
  H           42.550633       27.050475       41.768978
  H           42.796628       26.468721       40.139832
  Cl          40.519379       26.649445       40.668455
  Cl          42.391120       28.777594       40.191137
  C           23.442430       13.232556       20.303046
  H           23.410682       13.625068       21.297946
  H           24.386579       12.757213       20.137119
  Cl          22.149153       12.057157       20.094549
  Cl          23.234936       14.544200       19.147998
  C           49.040387       30.201500        9.940537
  H           49.107959       31.247854        9.727284
  H           49.975186       29.855732       10.329762
  Cl          47.771979       29.925724       11.129103
  Cl          48.660037       29.324908        8.462525
  C            5.246697       30.154217       26.572024
  H            4.570882       30.726095       27.172966
  H            5.020622       29.113289       26.673307
  Cl           5.078548       30.629721       24.885838
  Cl           6.898327       30.450236       27.103147
  C           22.105027        4.092867       13.972108
  H           21.959635        4.824915       14.738832
  H           21.561331        4.380552       13.096589
  Cl          23.818664        3.978648       13.587395
  Cl          21.524846        2.529770       14.535771
  C           37.090978       44.469917       45.937260
  H           36.987107       43.406247       45.885118
  H           36.542563       44.921484       45.137118
  Cl          36.463039       45.045903       47.477238
  Cl          38.791834       44.900751       45.799172
  C           45.241601       32.729802        9.987302
  H           45.352223       32.910919       11.036044
  H           45.008993       33.647885        9.489390
  Cl          46.743802       32.077225        9.342992
  Cl          43.940052       31.574350        9.725576
  C           13.896817       19.345815        2.092959
  H           14.759755       18.732063        2.246406
  H           13.976017       20.228776        2.692131
  Cl          13.791924       19.796575        0.394898
  Cl          12.452023       18.452243        2.553069
  C           44.913860        3.712510        5.495055
  H           45.591512        2.926406        5.755301
  H           44.330885        3.979066        6.351786
  Cl          45.824951        5.114689        4.946050
  Cl          43.847039        3.164915        4.206787
  C           40.225721       25.178829       48.653826
  H           39.349285       24.718417       48.247894
  H           40.836223       25.548463       47.856607
  Cl          39.756025       26.513608       49.700416
  Cl          41.132842       23.993369       49.586250
  C           45.572386       48.948663        9.550404
  H           45.835437       49.319506       10.519001
  H           46.006229       47.980820        9.409129
  Cl          43.820960       48.830743        9.423119
  Cl          46.177517       50.048567        8.316861
  C           11.065937       28.277144       10.594566
  H           10.781425       28.716923        9.661535
  H           11.940046       28.768102       10.968457
  Cl           9.752290       28.455830       11.752151
  Cl          11.409779       26.567528       10.356690
  C           27.509421       13.971165       35.625606
  H           28.578044       13.959132       35.572692
  H           27.105408       14.116843       34.645579
  Cl          26.936863       12.438550       36.274350
  Cl          26.988787       15.283954       36.675904
  C           15.005813       32.048004        3.185634
  H           15.612379       31.221135        2.880243
  H           14.866092       32.712474        2.358677
  Cl          13.441389       31.456975        3.734144
  Cl          15.802339       32.906159        4.499680
  C            2.581465       12.064301       47.773954
  H            2.242994       11.355948       48.500986
  H            2.036229       12.978169       47.885589
  Cl           4.298056       12.372706       48.010178
  Cl           2.318446       11.417850       46.158243
  C           28.766643       26.185580       31.042963
  H           28.016105       26.703118       30.482832
  H           29.417264       26.895911       31.508819
  Cl          27.998148       25.195433       32.278530
  Cl          29.699488       25.156053       29.962465
  C            3.981506       11.338057       43.126197
  H            2.936131       11.109948       43.118667
  H            4.497206       10.627553       43.737866
  Cl           4.610003       11.263907       41.483914
  Cl           4.224253       12.956094       43.774758
  C            6.057236       35.980002       15.555730
  H            5.333188       35.491427       16.173750
  H            6.239341       36.965486       15.930642
  Cl           7.557629       35.060112       15.570596
  Cl           5.448261       36.082548       13.907630
  C           27.023185       29.175562       47.795556
  H           26.692228       29.761552       48.627411
  H           28.091630       29.118278       47.802221
  Cl          26.348015       27.554554       47.914218
  Cl          26.485292       29.926920       46.297647
  C           15.616282       24.201191        1.758365
  H           16.485623       24.810240        1.893295
  H           14.780196       24.660655        2.242878
  Cl          15.278611       24.033354        0.039235
  Cl          15.899254       22.611475        2.458600
  C            2.227621       16.178795       38.075735
  H            3.053673       16.371182       38.728057
  H            1.497774       15.588285       38.589079
  Cl           1.504199       17.704584       37.579522
  Cl           2.792798       15.307861       36.654591
