5
name=chloroform mw=119.38 density=1.49
C                 -0.88859415    1.17374011    0.00000000
H                 -0.53192131    1.67813830   -0.87365150
Cl                -0.30194762   -0.48561092    0.00000000
Cl                -2.64859415    1.17376179    0.00000000
Cl                -0.30191733    2.00340442    1.43703425
