8
name=dce mw=98.95 density=1.253
C                 -1.37930250   -0.14959630    0.03611761
H                 -1.02262966    0.35480189    0.90976911
H                 -1.02262966    0.35480189   -0.83753390
C                 -2.91930250   -0.14957732    0.03611761
H                 -3.27597504   -0.65228092   -0.83851019
H                 -3.27597559   -0.65566884    0.90878918
Cl                -3.50594820    1.50977089    0.03933539
Cl                -0.79265597   -1.80894733    0.03611761
