27
name=dibutylether mw=130.23 density=0.770
O                 -0.31830238    2.48010619    0.00000000
C                 -0.79564620    3.82808352    0.00000000
C                 -2.30219095    3.85083376    0.00211527
H                 -0.39456487    4.34424774   -0.90566720
H                 -0.39209015    4.34501961    0.90414895
C                 -2.83846117    5.26694336    0.00234239
H                 -2.68892019    3.30610276   -0.89950354
H                 -2.68245971    3.32640790    0.91840723
C                 -4.34502243    5.28966581    0.00439269
H                 -2.45175116    5.81166064    0.90394323
H                 -2.45423163    5.81095853   -0.90074794
H                 -4.71797448    6.34221302    0.00454201
H                 -4.74845638    4.77260087   -0.89973637
H                 -4.74598619    4.77321573    0.90997087
C                  1.11169523    2.48010534   -0.00261381
C                  1.63603665    1.06756690   -0.00201991
H                  1.46602187    3.03282985    0.90097518
H                  1.46261534    3.03072119   -0.90883839
C                  3.14992819    1.03476207   -0.00492901
H                  1.25329441    0.52352799    0.90171561
H                  1.26695540    0.53167575   -0.91625045
C                  3.67424905   -0.37780104   -0.00427005
H                  3.53266395    1.57877832   -0.90864649
H                  3.53612880    1.58089153    0.89604196
H                  4.79091554   -0.37801468   -0.00645990
H                  3.32316669   -0.92834486    0.90193476
H                  3.31961387   -0.93050991   -0.90776949
