15
name=ether density=0.708 mw=74.12
C                  2.85145884    3.24933698    0.00000000
H                  3.20811327    2.24052698    0.00000000
H                  3.20813168    3.75373517    0.87365150
H                  3.20813168    3.75373517   -0.87365150
C                  1.31145884    3.24935596    0.00000000
H                  0.95480493    4.25816614    0.00000013
H                  0.95478628    2.74495735   -0.87365137
C                 -0.74188368    2.52366159    1.25754421
H                 -1.09871506    2.01941365    0.38387071
H                 -1.09837874    3.53252791    1.25768517
C                 -1.25522624    1.79765069    2.51491749
H                 -0.89839365    2.30189867    3.38859047
H                 -2.32522622    1.79783325    2.51501467
H                 -0.89873175    0.78878416    2.51477645
O                  0.79811629    2.52339937    1.25740465
