20 
name=hexanes mw=86.18 density=0.659
C                 -0.02652520    3.71352798    0.00000000
H                  0.33014764    4.21792617    0.87365150
H                  0.33014764    4.21792617   -0.87365150
C                  0.48679052    2.26159583    0.00000000
H                  0.13011949    1.75719828    0.87365262
H                  0.13011579    1.75719643   -0.87365004
C                 -1.56652520    3.71354696    0.00000000
H                 -1.92319778    3.20745523    0.87267166
H                 -1.92317912    4.72235524    0.00195600
H                 -1.92319825    3.21084356   -0.87462771
C                  2.02679052    2.26157763   -0.00000377
H                  2.38346067    2.76427838   -0.87463418
H                  2.38346549    2.76767235    0.87266518
C                  2.54010624    0.80964821    0.00281556
H                  2.18302211    0.30340962   -0.86960258
H                  2.18384475    0.30709278    0.87769600
C                  4.08010607    0.80962855    0.00209106
H                  4.43718934    1.31589099    0.87449571
H                  4.43676051   -0.19917949    0.00407682
H                  4.43636778    1.31216051   -0.87280277
