6
name=methanol mw=32.04 density=0.791
C                 -1.46306813   -1.97443179    0.00000000
H                 -1.10641370   -2.98324179    0.00000000
H                 -1.10639529   -1.47003360    0.87365150
H                 -2.53306813   -1.97441860    0.00000000
O                 -0.98639321   -1.30032953   -1.16759033
H                 -1.30759801   -0.39566066   -1.16889301
