15 
name=toluene density=0.867 mw=92.14
C                 -0.71618036    2.71883299    0.00000000
C                  0.67897964    2.71883299    0.00000000
C                  1.37651764    3.92658399    0.00000000
C                  0.67886364    5.13509299   -0.00119900
C                 -0.71596136    5.13501499   -0.00167800
C                 -1.41356236    3.92680899   -0.00068200
H                  1.22848764    1.76631999    0.00131500
H                  2.47619764    3.92666399    0.00063400
H                  1.22906364    6.08723599   -0.00125800
H                 -1.26608336    6.08729599   -0.00263100
H                 -2.51316636    3.92699199   -0.00086200
C                 -1.48611572    1.38511670    0.00063022
H                 -0.91072412    0.64087909   -0.50920787
H                 -1.65863606    1.07335563    1.00956123
H                 -2.42394188    1.51444278   -0.49802482
