24
benzene
 C                 -3.00142242   -0.33428165    0.00000000
 C                 -1.60626242   -0.33428165    0.00000000
 C                 -0.90872442    0.87346935    0.00000000
 C                 -1.60637842    2.08197835   -0.00119900
 C                 -3.00120342    2.08190035   -0.00167800
 C                 -3.69880442    0.87369435   -0.00068200
 H                 -3.55118142   -1.28659865    0.00045000
 H                 -1.05675442   -1.28679465    0.00131500
 H                  0.19095558    0.87354935    0.00063400
 H                 -1.05617842    3.03412135   -0.00125800
 H                 -3.55132542    3.03418135   -0.00263100
 H                 -4.79840842    0.87387735   -0.00086200
 C                 -3.00142242   -0.33428165    8.00000000
 C                 -1.60626242   -0.33428165    8.00000000
 C                 -0.90872442    0.87346935    8.00000000
 C                 -1.60637842    2.08197835   8.00119900
 C                 -3.00120342    2.08190035   8.00167800
 C                 -3.69880442    0.87369435   8.00068200
 H                 -3.55118142   -1.28659865    8.00045000
 H                 -1.05675442   -1.28679465    8.00131500
 H                  0.19095558    0.87354935    8.00063400
 H                 -1.05617842    3.03412135   8.00125800
 H                 -3.55132542    3.03418135   8.00263100
 H                 -4.79840842    0.87387735   8.00086200
