         500
  Built with Packmol                                             
  C           -3.537544        0.317214        4.238046
  H           -2.549262       -0.058012        4.403585
  H           -3.515044        1.386870        4.222897
  Cl          -4.140677       -0.278798        2.695775
  Cl          -4.597008       -0.229015        5.532948
  C            7.877322       -0.599787        2.334858
  H            7.745793       -0.122741        3.283556
  H            7.014665       -0.426704        1.725954
  Cl           9.300284        0.061688        1.537845
  Cl           8.089658       -2.330631        2.572960
  C            6.355303        9.539415        4.573029
  H            5.510778       10.003176        5.038435
  H            6.025570        8.714332        3.976862
  Cl           7.177906       10.711158        3.549338
  Cl           7.464189        8.961995        5.811802
  C           -3.356001        9.832626       -7.281773
  H           -3.470874       10.257049       -6.306289
  H           -4.032257       10.309512       -7.960122
  Cl          -1.702748       10.073332       -7.835323
  Cl          -3.707956        8.109395       -7.216969
  C           -0.530556        9.824328       -5.214505
  H           -0.902057       10.819713       -5.341369
  H           -1.315162        9.194506       -4.850339
  Cl           0.044058        9.211054       -6.760892
  Cl           0.796465        9.836303       -4.058445
  C          -10.639680        1.366652        4.049759
  H          -11.473998        0.729392        3.843088
  H          -10.817125        1.903160        4.958369
  Cl          -9.184341        0.391473        4.218919
  Cl         -10.430812        2.507554        2.726008
  C            5.877241      -11.224137       -1.514148
  H            5.923679      -10.163292       -1.645872
  H            6.860804      -11.637224       -1.596999
  Cl           5.219588      -11.589513        0.076949
  Cl           4.840688      -11.924232       -2.752303
  C           -6.573254        1.805169        2.762879
  H           -6.989388        1.754823        1.778400
  H           -5.625003        2.299376        2.724436
  Cl          -7.661187        2.704233        3.814395
  Cl          -6.360581        0.176012        3.393926
  C            2.404471        0.480321      -11.634634
  H            1.778187        0.870474      -12.409520
  H            3.363839        0.951968      -11.680046
  Cl           1.667566        0.799106      -10.068445
  Cl           2.593499       -1.256001      -11.851546
  C           -4.886420       -0.781085       11.718140
  H           -5.271439       -1.609691       12.274983
  H           -4.178179       -1.133715       10.997760
  Cl          -6.208327        0.034612       10.890614
  Cl          -4.096166        0.346183       12.814664
  C            2.666557        4.860397        3.315963
  H            1.921888        5.538523        3.677231
  H            2.472405        4.631576        2.288906
  Cl           4.255832        5.602457        3.461401
  Cl           2.621509        3.379298        4.265654
  C            1.689595       -7.411463       -4.691275
  H            1.881275       -8.458422       -4.800978
  H            1.933473       -6.906794       -5.602721
  Cl          -0.012714       -7.162436       -4.320158
  Cl           2.675472       -6.768499       -3.382748
  C            9.442255       -6.257011       -5.271580
  H           10.460086       -6.586731       -5.257280
  H            8.792383       -7.106718       -5.295315
  Cl           9.113040       -5.306804       -3.827168
  Cl           9.166231       -5.267223       -6.700471
  C           11.153157       -1.867468       -1.334633
  H           12.113743       -2.336266       -1.285618
  H           10.394691       -2.616884       -1.424105
  Cl          10.882185       -0.930499        0.130380
  Cl          11.091670       -0.800648       -2.733102
  C           -7.747081      -10.217081        1.706152
  H           -7.410205      -11.134701        2.141341
  H           -8.816482      -10.210466        1.670977
  Cl          -7.183768       -8.864044        2.680610
  Cl          -7.105492      -10.071646        0.073726
  C            4.469884       -5.565055        6.420518
  H            3.726963       -6.329352        6.326610
  H            4.466228       -4.954233        5.542006
  Cl           4.113635       -4.570398        7.828120
  Cl           6.054149       -6.307270        6.612410
  C           -6.941635       -3.458415      -10.072725
  H           -7.762763       -4.144284      -10.057477
  H           -7.303701       -2.473133      -10.280156
  Cl          -6.137944       -3.470554       -8.506988
  Cl          -5.799136       -3.938768      -11.322348
  C            3.538022        7.893044       -2.591565
  H            2.718566        8.575431       -2.503587
  H            3.172222        6.888569       -2.545528
  Cl           4.353340        8.150561       -4.129922
  Cl           4.672283        8.165318       -1.273643
  C            5.792212       -5.652946       -1.256238
  H            6.847099       -5.625150       -1.433272
  H            5.286940       -5.936483       -2.155797
  Cl           5.440306       -6.825015        0.008679
  Cl           5.240080       -4.060216       -0.750311
  C           -3.701865        2.437145       -9.169737
  H           -3.885495        3.491129       -9.152530
  H           -4.634181        1.912353       -9.153040
  Cl          -2.819526        2.019197      -10.634113
  Cl          -2.748626        1.984646       -7.761127
  C           -3.974701        6.350203       -9.503984
  H           -4.901693        6.884584       -9.499193
  H           -3.872900        5.804437       -8.589284
  Cl          -3.950258        5.230081      -10.861309
  Cl          -2.641821        7.489050       -9.659093
  C           -8.084638        6.469038        0.580585
  H           -8.420680        5.497020        0.285364
  H           -8.342665        6.639764        1.604877
  Cl          -6.337674        6.568393        0.391253
  Cl          -8.854441        7.687697       -0.429303
  C            7.082979       -4.804320        1.658020
  H            7.016338       -3.884146        1.116043
  H            7.681676       -5.499796        1.107770
  Cl           7.821281       -4.508320        3.228018
  Cl           5.469519       -5.469916        1.884582
  C            1.372807       -9.166955       -0.811318
  H            0.949841       -9.610783       -1.688254
  H            1.092032       -9.738505        0.048563
  Cl           3.126924       -9.143867       -0.953229
  Cl           0.776243       -7.519889       -0.641357
  C           -9.565082       -6.683008       -1.126921
  H           -9.336176       -7.627512       -1.574599
  H           -8.709435       -6.324176       -0.593998
  Cl         -10.000806       -5.528971       -2.382287
  Cl         -10.913296       -6.873700       -0.011773
  C            1.808931        6.305120        8.275549
  H            1.856952        6.243799        7.208387
  H            2.607489        6.920679        8.633727
  Cl           0.267388        7.006719        8.754092
  Cl           1.957970        4.691879        8.963183
  C           -0.750531        7.570595        3.605565
  H           -0.725587        6.582458        3.195854
  H           -1.676741        8.040290        3.347840
  Cl          -0.604538        7.483218        5.357322
  Cl           0.585930        8.510736        2.951649
  C            6.402038        2.389426       -5.431532
  H            5.515312        2.447724       -4.835531
  H            7.032344        3.226779       -5.215996
  Cl           7.260600        0.898257       -5.061552
  Cl           5.965251        2.407377       -7.136377
  C           12.123085       -0.643252        3.163032
  H           11.344952       -0.191851        2.583681
  H           11.714594       -1.438731        3.750610
  Cl          13.359439       -1.284025        2.086723
  Cl          12.838559        0.563482        4.225806
  C            3.060754       -8.637687        2.619674
  H            4.039036       -8.256869        2.412689
  H            2.338341       -7.861272        2.477555
  Cl           2.708424       -9.973593        1.529343
  Cl           2.992218       -9.205269        4.284232
  C            5.662874       -7.989056       -4.435709
  H            5.649023       -7.270276       -5.228213
  H            4.964625       -7.698784       -3.678682
  Cl           5.217864       -9.569586       -5.069342
  Cl           7.279190       -8.068275       -3.743721
  C            6.254295        3.467520        2.837871
  H            6.277320        4.158025        3.654922
  H            5.238100        3.243502        2.588743
  Cl           7.056448        4.181586        1.443504
  Cl           7.085765        1.986148        3.298083
  C           -7.134503        3.574770       -7.139206
  H           -8.155454        3.501187       -6.827523
  H           -6.865417        2.697371       -7.689353
  Cl          -6.934112        4.992987       -8.161998
  Cl          -6.098185        3.720786       -5.724171
  C            0.030412       -0.412551       12.870195
  H           -0.853857       -0.497686       13.466618
  H           -0.211237       -0.601408       11.845091
  Cl           0.690260        1.211443       13.027817
  Cl           1.222543       -1.585867       13.417695
  C            2.744598       -0.178085       -1.970036
  H            3.377297        0.618210       -1.637612
  H            1.831209       -0.164205       -1.412875
  Cl           2.390938        0.029132       -3.681639
  Cl           3.559954       -1.717926       -1.721676
  C           -7.476049       -6.270012        6.309803
  H           -7.550374       -5.340020        5.785885
  H           -8.372301       -6.835433        6.161708
  Cl          -6.100085       -7.180321        5.696891
  Cl          -7.255550       -5.959372        8.028082
  C            5.955834        5.734175        6.885600
  H            6.504346        4.830027        6.722652
  H            6.633033        6.519636        7.148947
  Cl           5.094372        6.170997        5.414318
  Cl           4.801175        5.492574        8.191736
  C          -10.043636       -3.265140        5.583919
  H           -9.189679       -2.645672        5.762573
  H           -9.785615       -4.288209        5.761836
  Cl         -11.348216       -2.792305        6.666555
  Cl         -10.568105       -3.074105        3.914776
  C            3.279261       -3.166400       -6.380379
  H            2.681084       -2.286279       -6.268699
  H            4.005357       -3.206121       -5.595454
  Cl           2.248451       -4.590601       -6.298635
  Cl           4.099661       -3.124536       -7.936911
  C           -8.263655       -5.169634       -7.609808
  H           -8.871745       -5.724564       -6.926303
  H           -8.209049       -5.690803       -8.542707
  Cl          -8.971896       -3.579077       -7.866953
  Cl          -6.645009       -4.990158       -6.942444
  C           -3.663148        2.755466       10.779635
  H           -3.517366        1.727305       11.037574
  H           -2.726470        3.188488       10.496746
  Cl          -4.791914        2.868373        9.433998
  Cl          -4.314878        3.621479       12.166311
  C           -2.433202       10.121647        1.501197
  H           -1.875549       10.308131        2.395147
  H           -2.186198        9.151860        1.122512
  Cl          -4.155119       10.190758        1.858723
  Cl          -2.034832       11.340958        0.296132
  C            7.350338       -0.931246        9.385670
  H            7.910445       -1.638647        8.810549
  H            6.330374       -1.248843        9.446551
  Cl           8.029044       -0.823804       11.005983
  Cl           7.428031        0.647290        8.611211
  C            3.775826       -6.013815       -8.322944
  H            3.071972       -5.309251       -8.714197
  H            4.641325       -6.039913       -8.951538
  Cl           4.246091       -5.531970       -6.696820
  Cl           3.039677       -7.611640       -8.271562
  C            1.155481        7.015548        0.480565
  H            0.130113        6.879555        0.754473
  H            1.494555        6.161401       -0.067487
  Cl           1.309218        8.454355       -0.521333
  Cl           2.130603        7.205383        1.933390
  C            1.482040        4.341154       -2.003970
  H            0.583274        3.817096       -1.754006
  H            2.166272        4.287455       -1.183090
  Cl           2.213320        3.606417       -3.426289
  Cl           1.103640        6.026220       -2.343036
  C           -3.363523        3.008904       -2.203269
  H           -4.361185        2.847429       -2.554689
  H           -2.954360        3.876422       -2.677502
  Cl          -3.387336        3.249529       -0.459958
  Cl          -2.371712        1.606936       -2.588494
  C           -1.914698       -5.486192        2.234250
  H           -1.305042       -6.047557        1.557428
  H           -1.543673       -5.604948        3.230813
  Cl          -1.869457       -3.783682        1.790389
  Cl          -3.573021       -6.069999        2.152184
  C          -11.189379        1.326758       -2.846209
  H          -11.498765        0.960210       -1.889745
  H          -10.142816        1.548141       -2.821842
  Cl         -11.501869        0.103477       -4.072395
  Cl         -12.089444        2.788813       -3.233351
  C           -6.487270        5.007545       -1.801141
  H           -6.837605        4.538694       -0.905404
  H           -6.814885        4.444540       -2.650020
  Cl          -7.130938        6.642768       -1.897774
  Cl          -4.728473        5.069577       -1.781584
  C            6.868264        7.421280       -6.563592
  H            6.005214        6.798207       -6.454851
  H            6.898127        8.131927       -5.764224
  Cl           8.319454        6.426477       -6.518703
  Cl           6.787549        8.272038       -8.102195
  C            0.983259       11.755963        4.385261
  H            1.838177       11.120937        4.281541
  H            1.289842       12.707302        4.767179
  Cl           0.219520       11.972832        2.814506
  Cl          -0.163508       11.018803        5.498419
  C            4.646687       11.345382       -2.504440
  H            3.736652       11.905615       -2.558059
  H            4.448522       10.382776       -2.081331
  Cl           5.311245       11.149549       -4.122344
  Cl           5.804961       12.203060       -1.494297
  C          -11.858628       -2.729629       -2.307779
  H          -10.807883       -2.751032       -2.508719
  H          -12.394192       -3.057424       -3.174164
  Cl         -12.219326       -3.797657       -0.956182
  Cl         -12.345332       -1.087222       -1.903776
  C           -2.494740        3.924005        3.338878
  H           -2.612643        4.974566        3.173587
  H           -3.296557        3.567045        3.950898
  Cl          -2.515765        3.081062        1.794014
  Cl          -0.960906        3.626074        4.148933
  C           -2.130978        5.613980        7.274203
  H           -1.063290        5.544514        7.263403
  H           -2.549903        4.643306        7.439109
  Cl          -2.635334        6.697798        8.565932
  Cl          -2.693747        6.241045        5.728991
  C            3.352470        7.324720       -7.298207
  H            3.234048        6.298241       -7.020325
  H            3.807189        7.862182       -6.492437
  Cl           4.375845        7.431646       -8.726097
  Cl           1.775933        8.022154       -7.652772
  C            4.707596        0.178671       11.938825
  H            4.889802       -0.121677       10.928136
  H            5.604553        0.585145       12.357331
  Cl           3.440479        1.399787       11.968604
  Cl           4.199645       -1.217010       12.883102
  C           -1.066182       -6.260445        8.709310
  H           -1.588554       -5.477359        8.200583
  H           -1.695904       -7.122722        8.778788
  Cl           0.392896       -6.670123        7.814404
  Cl          -0.630225       -5.720507       10.326718
  C           -6.816417       -7.183808       -2.302879
  H           -7.690661       -6.792915       -2.780163
  H           -6.175931       -6.376394       -2.015200
  Cl          -7.286912       -8.097186       -0.873903
  Cl          -5.961424       -8.241477       -3.419984
  C            5.569147        3.369460       10.813692
  H            5.872646        4.139278       11.492049
  H            5.238693        2.515790       11.367721
  Cl           4.252568        3.960708        9.806395
  Cl           6.930064        2.916135        9.793887
  C           10.451143        4.815816       -1.865566
  H           10.478013        3.827523       -2.274778
  H           11.450601        5.173300       -1.730698
  Cl           9.589756        5.883925       -2.967725
  Cl           9.624365        4.785298       -0.312148
  C            9.770808       -1.734455        6.727689
  H            9.006973       -1.033829        6.993354
  H            9.364241       -2.472238        6.067931
  Cl          11.087828       -0.889199        5.922332
  Cl          10.378937       -2.518595        8.181272
  C           -8.151856        7.359320       -6.633437
  H           -7.458120        8.053200       -6.206633
  H           -9.151123        7.689286       -6.439819
  Cl          -7.891947        7.263887       -8.371522
  Cl          -7.909209        5.770671       -5.915859
  C           -5.529030       -0.181539       -3.086190
  H           -6.335592        0.402360       -3.477879
  H           -5.820277       -1.210345       -3.045790
  Cl          -4.121087       -0.010886       -4.128387
  Cl          -5.131231        0.379620       -1.466173
  C            5.163071       -0.403039       -5.916856
  H            5.785464        0.204803       -6.539797
  H            4.206032       -0.525114       -6.379536
  Cl           5.913945       -1.979615       -5.697315
  Cl           4.962646        0.374516       -4.350702
  C           -0.787339       -1.681528        6.946914
  H           -1.575819       -1.804132        6.234056
  H           -0.791106       -2.506493        7.628323
  Cl           0.758365       -1.621071        6.107424
  Cl          -1.029907       -0.183366        7.838133
  C            2.382546       -3.832642      -10.249227
  H            2.351461       -3.268549       -9.340528
  H            2.030644       -3.226354      -11.057608
  Cl           4.038059       -4.336029      -10.570910
  Cl           1.356995       -5.254365      -10.092552
  C           11.176194       -4.789701        1.335710
  H           12.122088       -4.927470        1.816548
  H           11.129856       -3.807093        0.914717
  Cl          10.988164       -5.985001        0.057625
  Cl           9.884583       -4.984041        2.515359
  C           -0.394409        5.021069      -11.049046
  H           -1.288803        5.606670      -11.003999
  H           -0.649027        3.981986      -11.068475
  Cl           0.503405        5.432428      -12.505862
  Cl           0.597742        5.355622       -9.634370
  C            9.484909        6.024807        3.889327
  H            8.494884        6.150792        4.275175
  H            9.922806        6.984572        3.710446
  Cl          10.462009        5.142685        5.057546
  Cl           9.415981        5.121024        2.380677
  C           -4.761769      -10.565809       -5.806444
  H           -5.815177      -10.745561       -5.752385
  H           -4.459241      -10.524028       -6.831935
  Cl          -4.386622       -9.035961       -5.021313
  Cl          -3.901827      -11.868712       -4.993707
  C           -4.792521        1.689431       -6.199109
  H           -4.764314        2.409574       -6.989994
  H           -5.805400        1.393171       -6.022454
  Cl          -3.840128        0.280987       -6.653896
  Cl          -4.125267        2.400648       -4.734001
  C           -5.878082       -2.385448        4.561201
  H           -5.012095       -1.969201        4.090346
  H           -5.819841       -3.453531        4.534619
  Cl          -5.953937       -1.843496        6.233964
  Cl          -7.322453       -1.855220        3.706654
  C           -2.706756       -1.837413       -5.067905
  H           -3.101073       -1.707936       -6.054135
  H           -3.497369       -2.110713       -4.400718
  Cl          -1.488406       -3.107421       -5.085265
  Cl          -1.976063       -0.330837       -4.525765
  C           -7.428081        8.638666        5.783272
  H           -7.140162        9.668738        5.814160
  H           -6.695401        8.079683        5.239566
  Cl          -7.544835        8.012694        7.424043
  Cl          -8.990071        8.489764        4.986017
  C           -1.002872       -5.020645       -6.249252
  H           -0.875754       -5.934168       -6.791669
  H           -0.058008       -4.527478       -6.154816
  Cl          -2.125777       -3.976644       -7.113397
  Cl          -1.643227       -5.373218       -4.648241
  C           -5.285322       -5.253824       -4.816321
  H           -5.541225       -6.204737       -5.234862
  H           -4.561311       -5.388961       -4.040146
  Cl          -4.612409       -4.221631       -6.073050
  Cl          -6.728205       -4.499615       -4.147848
  C           -9.683191        5.790739        4.635518
  H           -9.945478        4.763468        4.779810
  H           -9.656887        6.288514        5.582317
  Cl          -8.098643        5.890551        3.876014
  Cl         -10.879578        6.561871        3.600331
  C            0.688741       -1.162008       -8.554609
  H            1.455633       -1.263418       -9.293860
  H            0.899902       -1.810739       -7.730316
  Cl           0.634105        0.504321       -7.990728
  Cl          -0.865384       -1.594460       -9.258373
  C           -0.546823       -2.830565       -2.418824
  H           -0.866337       -3.847933       -2.506982
  H           -1.391521       -2.208397       -2.208369
  Cl           0.622685       -2.694199       -1.110673
  Cl           0.198638       -2.316881       -3.928134
  C           -1.194239      -12.005498       -4.983193
  H           -0.329885      -12.598572       -5.197796
  H           -0.888389      -11.058645       -4.589713
  Cl          -2.116491      -11.756291       -6.461350
  Cl          -2.196808      -12.836619       -3.799262
  C            2.274559       -3.526920        4.887430
  H            1.572152       -4.253336        5.239344
  H            1.748530       -2.710140        4.439029
  Cl           3.233887       -2.935485        6.239278
  Cl           3.335837       -4.266991        3.694290
  C            4.943679       -3.305246       10.679795
  H            5.234670       -2.517687       11.343101
  H            3.987044       -3.080008       10.256688
  Cl           6.133639       -3.457344        9.391982
  Cl           4.848608       -4.819054       11.572513
  C           -8.473523       -0.321211        8.292601
  H           -8.707747        0.720754        8.226665
  H           -7.667694       -0.462693        8.982183
  Cl          -9.887772       -1.206085        8.853399
  Cl          -7.999481       -0.917503        6.705995
  C            5.492435       -8.492522       -7.768933
  H            6.062018       -9.378002       -7.578144
  H            4.764060       -8.363477       -6.995811
  Cl           6.567193       -7.099155       -7.800899
  Cl           4.678865       -8.641661       -9.322465
  C           11.729871        3.144610        2.380279
  H           11.639030        2.535896        3.255559
  H           12.560834        2.807870        1.796321
  Cl          10.255554        3.024511        1.426567
  Cl          11.986788        4.819846        2.854807
  C           -2.281834       -3.612864      -10.073361
  H           -2.054037       -3.015676      -10.931484
  H           -1.409726       -4.156554       -9.775488
  Cl          -2.802128       -2.570215       -8.754355
  Cl          -3.570730       -4.743510      -10.470837
  C            1.196026       -0.330223        2.649486
  H            1.252228        0.069274        3.640517
  H            1.450238        0.431893        1.942764
  Cl           2.322107       -1.673843        2.493842
  Cl          -0.440643       -0.897292        2.337481
  C          -10.509033        5.337220       -4.731743
  H          -10.223814        5.938449       -5.569641
  H          -11.505044        4.973850       -4.876052
  Cl          -9.403613        3.975758       -4.583194
  Cl         -10.445301        6.307437       -3.264699
  C          -11.220507        5.001304       -0.859972
  H          -11.574266        4.265511       -0.168335
  H          -11.225652        5.963121       -0.391164
  Cl          -9.580489        4.599363       -1.356342
  Cl         -12.270180        5.031468       -2.272373
  C            6.406034       -2.085086       -2.901547
  H            6.081298       -3.100845       -2.989178
  H            5.603779       -1.429770       -3.169592
  Cl           6.893980       -1.766358       -1.240848
  Cl           7.771828       -1.810935       -3.977208
  C            4.880242        4.095899       -1.725752
  H            4.154561        3.323185       -1.871356
  H            5.339266        4.335160       -2.662208
  Cl           4.089823        5.528315       -1.076889
  Cl           6.109272        3.540938       -0.594777
  C           -0.718854        1.359319        5.394897
  H           -0.221162        0.430165        5.578951
  H           -1.615218        1.405311        5.977405
  Cl           0.340849        2.691251        5.842766
  Cl          -1.122795        1.480064        3.686139
  C            5.053935       -1.244625        7.290992
  H            4.456469       -1.973116        7.798177
  H            6.079243       -1.550193        7.307455
  Cl           4.511706       -1.099583        5.622895
  Cl           4.892422        0.311213        8.097764
  C            7.349369        7.619032        1.674653
  H            6.847974        8.130259        0.879575
  H            7.985077        6.861269        1.266522
  Cl           8.318761        8.767110        2.591057
  Cl           6.159051        6.876471        2.737360
  C            2.621266       -3.887529       -3.387287
  H            3.446416       -4.419794       -3.812400
  H            2.604465       -2.889252       -3.772073
  Cl           1.118816       -4.702996       -3.805924
  Cl           2.794097       -3.838586       -1.636477
  C           -4.176305        7.731479       -2.111375
  H           -5.147411        8.180759       -2.110520
  H           -3.432329        8.490366       -2.235835
  Cl          -3.914200        6.897907       -0.583612
  Cl          -4.064813        6.577788       -3.435824
  C            5.112766       -7.065451        9.176287
  H            4.792043       -7.536420       10.081949
  H            4.279684       -6.580094        8.712279
  Cl           6.355955       -5.874708        9.542637
  Cl           5.767425       -8.279860        8.083477
  C            2.828446        1.238041        6.636418
  H            2.333305        1.776979        7.416983
  H            2.325590        1.412352        5.708166
  Cl           4.496376        1.785879        6.511991
  Cl           2.802079       -0.482993        7.003772
