          79
  Built with Packmol                                             
  Ne          -2.273210       -0.583588        0.005078
  Ne           0.604775        0.676359        0.005078
  Ne           0.657825       -3.355471        0.005078
  Ne           4.132626       -0.159184        0.005078
  Ne           0.936340        3.607394        0.005078
  Ne           1.639257       -1.326293        0.005078
  Ne          -3.466843        3.023840        0.005078
  Ne          -0.986737        1.220126        0.005078
  Ne          -1.278515       -2.148357       -0.028124
  Ne           0.034483       -0.954825       -0.012499
  Ne           7.158497        2.786146        4.418516
  Ne           4.293902        1.315841       -9.681661
  Ne           6.371415        5.577781        6.443214
  Ne          -7.416953       -3.556344       -6.827425
  Ne          -9.526903       -1.498735       -2.966494
  Ne          -3.218006       -4.950792       -7.940071
  Ne          -5.299518       -5.371358        3.957725
  Ne           5.693367        7.719592        4.518531
  Ne          -1.752705       -6.090872        7.165734
  Ne           4.023089        5.595824        5.496508
  Ne          -1.607882       -1.272158       -9.811903
  Ne           2.724887        0.155406        7.627484
  Ne           6.746594        0.607947        5.109612
  Ne           4.200990       -0.981273        6.048915
  Ne          -5.648541        6.038221        1.269636
  Ne           6.523110        5.812007       -3.195090
  Ne           0.119951       -7.851113        6.567220
  Ne           7.337133       -7.337071        2.570697
  Ne           2.822255        8.065748        4.765063
  Ne          -4.718571        7.273178       -6.253788
  Ne          -9.041246        1.643188        4.314839
  Ne           1.499062       -0.519253       -9.163184
  Ne          -2.798314       -0.103921       10.244218
  Ne           3.735385       -2.795200        7.296815
  Ne          -5.804619       -2.828454       -8.487589
  Ne          -2.442774        1.953244       -8.047533
  Ne          -4.190882        4.119362       -7.324738
  Ne           8.579327        2.181802        6.007126
  Ne          -8.429196       -5.923372       -0.354049
  Ne           1.553535        6.266264        6.074494
  Ne           8.558800        5.518685        2.766548
  Ne           2.468245       -6.852122        3.977046
  Ne           4.362616        2.092405        3.656094
  Ne          -7.422586        4.172898       -4.536700
  Ne          -0.944224       -1.382427       10.317036
  Ne          -7.294968       -4.510798        5.537818
  Ne           4.676826        2.889760        6.130692
  Ne          -7.082895       -4.372347       -4.811085
  Ne           8.804341        5.364427       -2.819363
  Ne          -2.516949        1.531427        8.756104
  Ne          -4.182585        8.317153        2.021685
  Ne           7.065489        7.866490       -0.626694
  Ne           5.156752       -1.684561        8.620325
  Ne         -10.002148        2.229894       -2.904353
  Ne          -7.240163        4.704535       -2.077530
  Ne           0.581354        9.153326        4.183161
  Ne          -8.669228       -3.669800       -3.416190
  Ne          -2.666781        3.441949        3.594589
  Ne          -2.345967        4.414738        5.803027
  Ne           3.528049       -0.142059       10.087678
  Ne          -0.167717       -2.484881        8.507458
  Ne           5.066262        1.934405        8.346266
  Ne           7.538002        2.302830       -7.168650
  Ne           7.895716        3.833824       -1.018930
  Ne           6.618538        0.781724        7.307592
  Ne          -0.432345       -0.345668        3.846098
  Ne           1.611112       -2.733577       -8.480674
  Ne          -1.251793        3.822013       -9.209016
  Ne           6.383150        5.265445        3.927999
  Ne          -5.677640       -2.049512        4.219700
  Ne          -5.936786        7.564918        3.912182
  Ne          -1.270494        0.294091       -7.085675
  Ne           2.233595       -1.805653        8.976918
  Ne          -8.296633       -0.560477        6.399430
  Ne           8.510637        2.512341        2.694458
  Ne          -3.429106       -2.492883       -8.540980
  Ne          -1.963948        1.041513        6.593194
  Ne           3.202776        0.209898        4.491412
  Ne           3.315047       -5.660640        5.884229
