11
close to TS
 C                 -1.08358600   -0.26735500    0.52360200
 O                 -0.22813100   -1.05036100    0.86101600
 C                 -1.70614000    0.77957400    1.39400000
 H                 -1.02897400    1.64083300    1.33607900
 H                 -2.69423200    1.07404900    1.04220300
 H                 -1.74041800    0.41054300    2.42232800
 Cl                -1.73177300   -0.35921400   -1.14209900
 N                  1.57453200    1.21832200   -0.27449400
 N                  0.66337300    1.95262400   -0.23529500
 N                  2.50446800    0.46198300   -0.31822300
 Na                 1.84277800   -1.55633900    0.18340100
